ieee33-dg-voltage-regulation/results/S1_Base_Powers.csv
Element, Terminal, P(kW), Q(kvar),  P_Normal, Q_Normal, P_Emergency, Q_Emergency
"Transformer.SUBTRANS"  ,   1,      3868.3,      2684.6,         0.0,         0.0,         0.0,         0.0
"Transformer.SUBTRANS"  ,   2,     -3830.0,     -2361.8
"Line.L1"               ,   1,      3830.0,      2361.8,         0.0,         0.0,         0.0,         0.0
"Line.L1"               ,   2,     -3818.5,     -2356.0
"Line.L2"               ,   1,      3357.3,      2135.6,         0.0,         0.0,         0.0,         0.0
"Line.L2"               ,   2,     -3308.7,     -2111.1
"Line.L3"               ,   1,      2279.2,      1614.4,         0.0,         0.0,         0.0,         0.0
"Line.L3"               ,   2,     -2261.0,     -1605.2
"Line.L4"               ,   1,      2141.0,      1525.2,         0.0,         0.0,         0.0,         0.0
"Line.L4"               ,   2,     -2123.9,     -1516.7
"Line.L5"               ,   1,      2063.9,      1486.7,         0.0,         0.0,         0.0,         0.0
"Line.L5"               ,   2,     -2028.9,     -1456.7
"Line.L6"               ,   1,      1059.8,       509.1,         0.0,         0.0,         0.0,         0.0
"Line.L6"               ,   2,     -1058.0,      -503.4
"Line.L7"               ,   1,       858.1,       403.4,         0.0,         0.0,         0.0,         0.0
"Line.L7"               ,   2,      -853.6,      -402.1
"Line.L8"               ,   1,       654.8,       302.7,         0.0,         0.0,         0.0,         0.0
"Line.L8"               ,   2,      -651.1,      -300.1
"Line.L9"               ,   1,       592.2,       280.5,         0.0,         0.0,         0.0,         0.0
"Line.L9"               ,   2,      -589.1,      -278.4
"Line.L10"              ,   1,       530.9,       259.0,         0.0,         0.0,         0.0,         0.0
"Line.L10"              ,   2,      -530.4,      -259.0
"Line.L11"              ,   1,       486.9,       230.0,         0.0,         0.0,         0.0,         0.0
"Line.L11"              ,   2,      -486.1,      -229.9
"Line.L12"              ,   1,       428.3,       196.2,         0.0,         0.0,         0.0,         0.0
"Line.L12"              ,   2,      -425.9,      -194.5
"Line.L13"              ,   1,       368.8,       161.2,         0.0,         0.0,         0.0,         0.0
"Line.L13"              ,   2,      -368.2,      -160.5
"Line.L14"              ,   1,       254.5,        84.7,         0.0,         0.0,         0.0,         0.0
"Line.L14"              ,   2,      -254.2,       -84.6
"Line.L15"              ,   1,       197.5,        75.1,         0.0,         0.0,         0.0,         0.0
"Line.L15"              ,   2,      -197.3,       -75.1
"Line.L16"              ,   1,       140.8,        56.2,         0.0,         0.0,         0.0,         0.0
"Line.L16"              ,   2,      -140.6,       -56.1
"Line.L17"              ,   1,        84.3,        37.3,         0.0,         0.0,         0.0,         0.0
"Line.L17"              ,   2,       -84.3,       -37.5
"Line.L18"              ,   1,       361.1,       160.4,         0.0,         0.0,         0.0,         0.0
"Line.L18"              ,   2,      -361.0,      -160.4
"Line.L19"              ,   1,       271.0,       120.4,         0.0,         0.0,         0.0,         0.0
"Line.L19"              ,   2,      -270.1,      -119.8
"Line.L20"              ,   1,       180.1,        79.8,         0.0,         0.0,         0.0,         0.0
"Line.L20"              ,   2,      -180.0,       -79.9
"Line.L21"              ,   1,        90.0,        39.9,         0.0,         0.0,         0.0,         0.0
"Line.L21"              ,   2,       -90.0,       -40.0
"Line.L22"              ,   1,       939.5,       456.7,         0.0,         0.0,         0.0,         0.0
"Line.L22"              ,   2,      -936.3,      -454.7
"Line.L23"              ,   1,       846.3,       404.7,         0.0,         0.0,         0.0,         0.0
"Line.L23"              ,   2,      -841.2,      -400.8
"Line.L24"              ,   1,       421.3,       200.8,         0.0,         0.0,         0.0,         0.0
"Line.L24"              ,   2,      -420.0,      -200.0
"Line.L25"              ,   1,       909.1,       927.6,         0.0,         0.0,         0.0,         0.0
"Line.L25"              ,   2,      -906.8,      -926.6
"Line.L26"              ,   1,       846.8,       901.6,         0.0,         0.0,         0.0,         0.0
"Line.L26"              ,   2,      -843.8,      -900.2
"Line.L27"              ,   1,       783.8,       875.2,         0.0,         0.0,         0.0,         0.0
"Line.L27"              ,   2,      -773.7,      -866.5
"Line.L28"              ,   1,       715.0,       846.9,         0.0,         0.0,         0.0,         0.0
"Line.L28"              ,   2,      -708.0,      -841.0
"Line.L29"              ,   1,       592.6,       773.7,         0.0,         0.0,         0.0,         0.0
"Line.L29"              ,   2,      -589.2,      -772.1
"Line.L30"              ,   1,       398.3,       199.5,         0.0,         0.0,         0.0,         0.0
"Line.L30"              ,   2,      -396.9,      -198.3
"Line.L31"              ,   1,       255.0,       132.1,         0.0,         0.0,         0.0,         0.0
"Line.L31"              ,   2,      -254.9,      -132.0
"Line.L32"              ,   1,        56.6,        37.6,         0.0,         0.0,         0.0,         0.0
"Line.L32"              ,   2,       -56.6,       -37.7
"Load.L2"               ,   1,       100.0,        60.0
"Load.L3"               ,   1,        90.0,        40.0
"Load.L4"               ,   1,       120.0,        80.0
"Load.L5"               ,   1,        60.0,        30.0
"Load.L6"               ,   1,        60.0,        20.0
"Load.L7"               ,   1,       200.0,       100.0
"Load.L8"               ,   1,       198.8,        99.4
"Load.L9"               ,   1,        58.9,        19.6
"Load.L10"              ,   1,        58.1,        19.4
"Load.L11"              ,   1,        43.5,        29.0
"Load.L12"              ,   1,        57.9,        33.7
"Load.L13"              ,   1,        57.1,        33.3
"Load.L14"              ,   1,       113.7,        75.8
"Load.L15"              ,   1,        56.7,         9.4
"Load.L16"              ,   1,        56.5,        18.8
"Load.L17"              ,   1,        56.3,        18.8
"Load.L18"              ,   1,        84.3,        37.5
"Load.L19"              ,   1,        90.0,        40.0
"Load.L20"              ,   1,        90.0,        40.0
"Load.L21"              ,   1,        90.0,        40.0
"Load.L22"              ,   1,        90.0,        40.0
"Load.L23"              ,   1,        90.0,        50.0
"Load.L24"              ,   1,       420.0,       200.0
"Load.L25"              ,   1,       420.0,       200.0
"Load.L26"              ,   1,        60.0,        25.0
"Load.L27"              ,   1,        60.0,        25.0
"Load.L28"              ,   1,        58.7,        19.6
"Load.L29"              ,   1,       115.4,        67.3
"Load.L30"              ,   1,       190.9,       572.6
"Load.L31"              ,   1,       141.9,        66.2
"Load.L32"              ,   1,       198.2,        94.4
"Load.L33"              ,   1,        56.6,        37.7
